furosemide
  MOE2002           3D

 32 33  0  0  0  0  0  0  0  0  1 V2000
   -0.8380    1.3560    0.2360 C   0  0  0  0  0  0  0  0  0  0  0  0
   -0.0150    0.2450    0.5660 C   0  0  0  0  0  0  0  0  0  0  0  0
   -2.2280    1.1540    0.0770 C   0  0  0  0  0  0  0  0  0  0  0  0
   -2.8750    1.9910   -0.1380 H   0  0  0  0  0  0  0  0  0  0  0  0
   -0.3180    2.6500   -0.0140 C   0  0  0  0  0  0  0  0  0  0  0  0
   -0.5780   -1.0510    0.5650 C   0  0  0  0  0  0  0  0  0  0  0  0
    0.0260   -1.9260    0.7380 H   0  0  0  0  0  0  0  0  0  0  0  0
    1.2600    0.4300    0.9800 N   0  0  0  0  0  0  0  0  0  0  0  0
    1.6360    1.3530    1.1310 H   0  0  0  0  0  0  0  0  0  0  0  0
   -2.7890   -0.1330    0.1250 C   0  0  0  0  0  0  0  0  0  0  0  0
   -1.1440    3.7370    0.0210 O   0  0  0  0  0  0  0  0  0  0  0  0
   -0.6960    4.5640   -0.1750 H   0  0  0  0  0  0  0  0  0  0  0  0
    0.8610    2.8290   -0.3070 O   0  0  0  0  0  0  0  0  0  0  0  0
   -1.9550   -1.2440    0.3570 C   0  0  0  0  0  0  0  0  0  0  0  0
    2.2900   -0.5220    1.4220 C   0  0  0  0  0  0  0  0  0  0  0  0
    1.9230   -1.5360    1.5670 H   0  0  0  0  0  0  0  0  0  0  0  0
    2.6810   -0.1690    2.3770 H   0  0  0  0  0  0  0  0  0  0  0  0
   -4.5490   -0.3350   -0.1740 S   0  0  0  0  0  0  0  0  0  0  0  0
   -2.5940   -2.8810    0.4310 Cl  0  0  0  0  0  0  0  0  0  0  0  0
    3.4200   -0.5360    0.4160 C   0  0  0  0  0  0  0  0  0  0  0  0
   -4.7820   -1.3620   -1.4920 N   0  0  0  0  0  0  0  0  0  0  0  0
   -5.3310   -2.0440   -1.2060 H   0  0  0  0  0  0  0  0  0  0  0  0
   -5.2540   -0.8860   -2.1230 H   0  0  0  0  0  0  0  0  0  0  0  0
   -5.1520    0.9420   -0.4610 O   0  0  0  0  0  0  0  0  0  0  0  0
   -5.1720   -0.9010    0.9930 O   0  0  0  0  0  0  0  0  0  0  0  0
    3.4240   -1.2550   -0.7830 C   0  0  0  0  0  0  0  0  0  0  0  0
    2.6190   -1.8490   -1.1930 H   0  0  0  0  0  0  0  0  0  0  0  0
    4.5910    0.0390    0.5960 O   0  0  0  0  0  0  0  0  0  0  0  0
    4.6920   -1.0600   -1.3280 C   0  0  0  0  0  0  0  0  0  0  0  0
    5.0710   -1.4670   -2.2540 H   0  0  0  0  0  0  0  0  0  0  0  0
    5.3780   -0.2410   -0.4240 C   0  0  0  0  0  0  0  0  0  0  0  0
    6.3950    0.1080   -0.5250 H   0  0  0  0  0  0  0  0  0  0  0  0
  1  3  1  0  0  0  0
  1  2  2  0  0  0  0
  1  5  1  0  0  0  0
  2  6  1  0  0  0  0
  2  8  1  0  0  0  0
  3  4  1  0  0  0  0
  3 10  2  0  0  0  0
  5 11  1  0  0  0  0
  5 13  2  0  0  0  0
  6  7  1  0  0  0  0
  6 14  2  0  0  0  0
  8  9  1  0  0  0  0
  8 15  1  0  0  0  0
 10 14  1  0  0  0  0
 10 18  1  0  0  0  0
 11 12  1  0  0  0  0
 14 19  1  0  0  0  0
 15 16  1  0  0  0  0
 15 17  1  0  0  0  0
 15 20  1  0  0  0  0
 18 21  1  0  0  0  0
 18 24  2  0  0  0  0
 18 25  2  0  0  0  0
 20 26  2  0  0  0  0
 20 28  1  0  0  0  0
 21 23  1  0  0  0  0
 21 22  1  0  0  0  0
 26 27  1  0  0  0  0
 26 29  1  0  0  0  0
 28 31  1  0  0  0  0
 29 30  1  0  0  0  0
 29 31  2  0  0  0  0
 31 32  1  0  0  0  0
M  END
>  <name>
furosemide

>  <activity>
-6.5

>  <logD>
-1.21

>  <rgyr>
3.77187

>  <HCPSA>
125.96

>  <fROTB>
0.212121

$$$$
guanabenz
  MOE2002           3D

 22 22  0  0  0  0  0  0  0  0  1 V2000
   -1.1660   -0.2740   -0.3110 C   0  0  0  0  0  0  0  0  0  0  0  0
   -1.4180    1.1220   -0.2740 C   0  0  0  0  0  0  0  0  0  0  0  0
   -2.2260   -1.1750   -0.0370 C   0  0  0  0  0  0  0  0  0  0  0  0
    0.1430   -0.7960   -0.6380 C   0  0  0  0  0  0  0  0  0  0  0  0
    0.2110   -1.6100   -1.1710 H   0  0  0  0  0  0  0  0  0  0  0  0
   -2.6960    1.5990    0.0760 C   0  0  0  0  0  0  0  0  0  0  0  0
   -2.8930    2.6610    0.1020 H   0  0  0  0  0  0  0  0  0  0  0  0
   -0.2240    2.3080   -0.7910 Cl  0  0  0  0  0  0  0  0  0  0  0  0
   -3.5000   -0.6810    0.3060 C   0  0  0  0  0  0  0  0  0  0  0  0
   -4.3080   -1.3640    0.5280 H   0  0  0  0  0  0  0  0  0  0  0  0
   -1.9870   -2.9200   -0.0330 Cl  0  0  0  0  0  0  0  0  0  0  0  0
    1.1760   -0.2870   -0.1660 N   0  0  0  0  0  0  0  0  0  0  0  0
   -3.7320    0.7010    0.3780 C   0  0  0  0  0  0  0  0  0  0  0  0
   -4.7070    1.0730    0.6560 H   0  0  0  0  0  0  0  0  0  0  0  0
    2.2890   -0.7310   -0.3550 N   0  0  0  0  0  0  0  0  0  0  0  0
    2.4320   -1.5810   -0.8900 H   0  0  0  0  0  0  0  0  0  0  0  0
    3.3970   -0.1060    0.1420 C   0  0  0  0  0  0  0  0  0  0  0  0
    3.3180    1.0430    0.8740 N   0  0  0  0  0  0  0  0  0  0  0  0
    2.4480    1.5060    1.0950 H   0  0  0  0  0  0  0  0  0  0  0  0
    4.1280    1.5190    1.2450 H   0  0  0  0  0  0  0  0  0  0  0  0
    4.6210   -0.6370   -0.1170 N   0  0  0  0  0  0  0  0  0  0  0  0
    4.6940   -1.3700   -0.6180 H   0  0  0  0  0  0  0  0  0  0  0  0
  1  2  2  0  0  0  0
  1  3  1  0  0  0  0
  1  4  1  0  0  0  0
  2  8  1  0  0  0  0
  2  6  1  0  0  0  0
  3 11  1  0  0  0  0
  3  9  2  0  0  0  0
  4  5  1  0  0  0  0
  4 12  2  0  0  0  0
  6 13  2  0  0  0  0
  6  7  1  0  0  0  0
  9 13  1  0  0  0  0
  9 10  1  0  0  0  0
 12 15  1  0  0  0  0
 13 14  1  0  0  0  0
 15 16  1  0  0  0  0
 15 17  1  0  0  0  0
 17 18  1  0  0  0  0
 17 21  2  0  0  0  0
 18 20  1  0  0  0  0
 18 19  1  0  0  0  0
 21 22  1  0  0  0  0
M  END
>  <name>
guanabenz

>  <activity>
-4.5

>  <logD>
1.67

>  <rgyr>
3.00601

>  <HCPSA>
75.04

>  <fROTB>
0.181818

$$$$
fleroxacin
  MOE2002           3D

 44 46  0  0  0  0  0  0  0  0  1 V2000
   -1.8210    0.0710    0.4420 C   0  0  0  0  0  0  0  0  0  0  0  0
   -2.2070   -1.2220    0.0110 C   0  0  0  0  0  0  0  0  0  0  0  0
   -2.7170    1.0890    0.5890 N   0  0  0  0  0  0  0  0  0  0  0  0
   -0.4520    0.3160    0.7280 C   0  0  0  0  0  0  0  0  0  0  0  0
   -3.5700   -1.5460   -0.1530 C   0  0  0  0  0  0  0  0  0  0  0  0
   -1.2130   -2.1700   -0.3080 C   0  0  0  0  0  0  0  0  0  0  0  0
   -1.4750   -3.1340   -0.7190 H   0  0  0  0  0  0  0  0  0  0  0  0
   -4.0960    0.7480    0.4030 C   0  0  0  0  0  0  0  0  0  0  0  0
   -4.8400    1.5030    0.6070 H   0  0  0  0  0  0  0  0  0  0  0  0
   -2.5100    2.5360    0.3270 C   0  0  0  0  0  0  0  0  0  0  0  0
   -1.8890    2.9720    1.1090 H   0  0  0  0  0  0  0  0  0  0  0  0
   -3.4450    3.0990    0.3400 H   0  0  0  0  0  0  0  0  0  0  0  0
    0.5460   -0.6380    0.4120 C   0  0  0  0  0  0  0  0  0  0  0  0
   -0.1280    1.3620    1.4730 F   0  0  0  0  0  0  0  0  0  0  0  0
   -4.5390   -0.4890    0.0660 C   0  0  0  0  0  0  0  0  0  0  0  0
   -3.8700   -2.6970   -0.4730 O   0  0  0  0  0  0  0  0  0  0  0  0
    0.1480   -1.8670   -0.1570 C   0  0  0  0  0  0  0  0  0  0  0  0
   -1.8550    2.7720   -1.0390 C   0  0  0  0  0  0  0  0  0  0  0  0
   -0.8730    2.3000   -1.0850 H   0  0  0  0  0  0  0  0  0  0  0  0
   -2.4860    2.3530   -1.8250 H   0  0  0  0  0  0  0  0  0  0  0  0
    1.8590   -0.3840    0.6550 N   0  0  0  0  0  0  0  0  0  0  0  0
   -5.9740   -0.7240   -0.0680 C   0  0  0  0  0  0  0  0  0  0  0  0
    1.0350   -2.7050   -0.6710 F   0  0  0  0  0  0  0  0  0  0  0  0
   -1.7090    4.1000   -1.2490 F   0  0  0  0  0  0  0  0  0  0  0  0
    2.5210    0.9450    0.6350 C   0  0  0  0  0  0  0  0  0  0  0  0
    2.4700    1.4080    1.6210 H   0  0  0  0  0  0  0  0  0  0  0  0
    1.9840    1.5770   -0.0740 H   0  0  0  0  0  0  0  0  0  0  0  0
    2.8800   -1.3650    1.0760 C   0  0  0  0  0  0  0  0  0  0  0  0
    2.4580   -2.3500    1.2780 H   0  0  0  0  0  0  0  0  0  0  0  0
    3.2840   -1.0130    2.0270 H   0  0  0  0  0  0  0  0  0  0  0  0
   -6.4400   -1.9980   -0.2230 O   0  0  0  0  0  0  0  0  0  0  0  0
   -7.3940   -2.0460   -0.3060 H   0  0  0  0  0  0  0  0  0  0  0  0
   -6.8140    0.1740   -0.0470 O   0  0  0  0  0  0  0  0  0  0  0  0
    3.9920    0.9040    0.1790 C   0  0  0  0  0  0  0  0  0  0  0  0
    4.2100    1.8340   -0.3500 H   0  0  0  0  0  0  0  0  0  0  0  0
    4.6620    0.8250    1.0370 H   0  0  0  0  0  0  0  0  0  0  0  0
    4.0460   -1.4850    0.0820 C   0  0  0  0  0  0  0  0  0  0  0  0
    4.9450   -1.6530    0.6780 H   0  0  0  0  0  0  0  0  0  0  0  0
    3.9090   -2.3360   -0.5880 H   0  0  0  0  0  0  0  0  0  0  0  0
    4.1860   -0.2490   -0.7240 N   0  0  0  0  0  0  0  0  0  0  0  0
    5.5420   -0.2120   -1.3140 C   0  0  0  0  0  0  0  0  0  0  0  0
    6.3030   -0.2100   -0.5310 H   0  0  0  0  0  0  0  0  0  0  0  0
    5.6870   -1.0830   -1.9540 H   0  0  0  0  0  0  0  0  0  0  0  0
    5.6530    0.6880   -1.9190 H   0  0  0  0  0  0  0  0  0  0  0  0
  1  2  1  0  0  0  0
  1  4  2  0  0  0  0
  1  3  1  0  0  0  0
  2  6  2  0  0  0  0
  2  5  1  0  0  0  0
  3 10  1  0  0  0  0
  3  8  1  0  0  0  0
  4 13  1  0  0  0  0
  4 14  1  0  0  0  0
  5 15  1  0  0  0  0
  5 16  2  0  0  0  0
  6  7  1  0  0  0  0
  6 17  1  0  0  0  0
  8  9  1  0  0  0  0
  8 15  2  0  0  0  0
 10 11  1  0  0  0  0
 10 12  1  0  0  0  0
 10 18  1  0  0  0  0
 13 17  2  0  0  0  0
 13 21  1  0  0  0  0
 15 22  1  0  0  0  0
 17 23  1  0  0  0  0
 18 19  1  0  0  0  0
 18 20  1  0  0  0  0
 18 24  1  0  0  0  0
 21 25  1  0  0  0  0
 21 28  1  0  0  0  0
 22 31  1  0  0  0  0
 22 33  2  0  0  0  0
 25 26  1  0  0  0  0
 25 27  1  0  0  0  0
 25 34  1  0  0  0  0
 28 29  1  0  0  0  0
 28 30  1  0  0  0  0
 28 37  1  0  0  0  0
 31 32  1  0  0  0  0
 34 35  1  0  0  0  0
 34 36  1  0  0  0  0
 34 40  1  0  0  0  0
 37 38  1  0  0  0  0
 37 39  1  0  0  0  0
 37 40  1  0  0  0  0
 40 41  1  0  0  0  0
 41 43  1  0  0  0  0
 41 44  1  0  0  0  0
 41 42  1  0  0  0  0
M  END
>  <name>
fleroxacin

>  <activity>
-4.81

>  <logD>
-0.29

>  <rgyr>
3.93444

>  <HCPSA>
63.28

>  <fROTB>
0.130435

$$$$
mibefradil
  MOE2002           3D

 74 77  0  0  1  0  0  0  0  0  1 V2000
   -2.2760   -0.1920    0.2480 C   0  0  2  0  0  0  0  0  0  0  0  0
   -3.0210    0.8320   -0.6760 C   0  0  2  0  0  0  0  0  0  0  0  0
   -2.3460    0.2750    1.7180 C   0  0  0  0  0  0  0  0  0  0  0  0
   -1.8430    1.2350    1.8140 H   0  0  0  0  0  0  0  0  0  0  0  0
   -1.8500   -0.4420    2.3750 H   0  0  0  0  0  0  0  0  0  0  0  0
   -0.7540   -0.3380   -0.0420 C   0  0  0  0  0  0  0  0  0  0  0  0
   -0.6220   -0.9040   -0.9530 H   0  0  0  0  0  0  0  0  0  0  0  0
   -0.3350   -0.9680    0.7440 H   0  0  0  0  0  0  0  0  0  0  0  0
   -2.7330   -1.5390    0.1040 O   0  0  0  0  0  0  0  0  0  0  0  0
   -4.2640    1.5020   -0.0570 C   0  0  0  0  0  0  0  0  0  0  0  0
   -3.2250    0.4130   -2.1680 C   0  0  0  0  0  0  0  0  0  0  0  0
   -3.4440    1.3290   -2.7160 H   0  0  0  0  0  0  0  0  0  0  0  0
   -3.7540    0.5230    2.2440 C   0  0  0  0  0  0  0  0  0  0  0  0
   -4.2330   -0.4130    2.5240 H   0  0  0  0  0  0  0  0  0  0  0  0
   -3.6560    1.1060    3.1600 H   0  0  0  0  0  0  0  0  0  0  0  0
    0.1180    0.9370   -0.0760 C   0  0  0  0  0  0  0  0  0  0  0  0
   -0.2080    1.6450   -0.8370 H   0  0  0  0  0  0  0  0  0  0  0  0
    0.0330    1.4150    0.8970 H   0  0  0  0  0  0  0  0  0  0  0  0
   -3.8670   -2.0350    0.5590 C   0  0  0  0  0  0  0  0  0  0  0  0
   -4.6380    1.2910    1.2910 C   0  0  0  0  0  0  0  0  0  0  0  0
   -5.0030    2.4450   -0.8100 C   0  0  0  0  0  0  0  0  0  0  0  0
   -4.6810    2.7630   -1.7890 H   0  0  0  0  0  0  0  0  0  0  0  0
   -2.0080   -0.1360   -2.9230 C   0  0  0  0  0  0  0  0  0  0  0  0
   -1.8340   -1.1790   -2.6650 H   0  0  0  0  0  0  0  0  0  0  0  0
   -2.2030   -0.0910   -3.9950 H   0  0  0  0  0  0  0  0  0  0  0  0
   -1.1230    0.4660   -2.7180 H   0  0  0  0  0  0  0  0  0  0  0  0
   -4.4180   -0.5210   -2.4260 C   0  0  0  0  0  0  0  0  0  0  0  0
   -4.6320   -0.5360   -3.4940 H   0  0  0  0  0  0  0  0  0  0  0  0
   -4.1850   -1.5390   -2.1190 H   0  0  0  0  0  0  0  0  0  0  0  0
   -5.3130   -0.1730   -1.9100 H   0  0  0  0  0  0  0  0  0  0  0  0
    1.5550    0.6140   -0.2870 N   0  0  0  0  0  0  0  0  0  0  0  0
   -3.8500   -3.3460    1.3380 C   0  0  0  0  0  0  0  0  0  0  0  0
   -2.8660   -3.4870    1.7880 H   0  0  0  0  0  0  0  0  0  0  0  0
   -4.6000   -3.2960    2.1280 H   0  0  0  0  0  0  0  0  0  0  0  0
   -4.9380   -1.4740    0.3420 O   0  0  0  0  0  0  0  0  0  0  0  0
   -5.8330    1.8410    1.7930 C   0  0  0  0  0  0  0  0  0  0  0  0
   -6.1350    1.6330    2.8100 H   0  0  0  0  0  0  0  0  0  0  0  0
   -6.1820    3.0140   -0.2980 C   0  0  0  0  0  0  0  0  0  0  0  0
   -6.7460    3.7110   -0.8980 H   0  0  0  0  0  0  0  0  0  0  0  0
    2.3430    1.8370    0.0190 C   0  0  0  0  0  0  0  0  0  0  0  0
    2.1410    2.1390    1.0480 H   0  0  0  0  0  0  0  0  0  0  0  0
    2.0500    2.6540   -0.6420 H   0  0  0  0  0  0  0  0  0  0  0  0
    1.7780    0.2230   -1.7030 C   0  0  0  0  0  0  0  0  0  0  0  0
    2.8220   -0.0350   -1.8670 H   0  0  0  0  0  0  0  0  0  0  0  0
    1.2010   -0.6620   -1.9620 H   0  0  0  0  0  0  0  0  0  0  0  0
    1.5020    1.0380   -2.3740 H   0  0  0  0  0  0  0  0  0  0  0  0
   -4.1420   -4.4130    0.4550 O   0  0  0  0  0  0  0  0  0  0  0  0
   -6.6200    2.6800    0.9920 C   0  0  0  0  0  0  0  0  0  0  0  0
    3.8610    1.6190   -0.0840 C   0  0  0  0  0  0  0  0  0  0  0  0
    4.3480    2.5120    0.3100 H   0  0  0  0  0  0  0  0  0  0  0  0
    4.1660    1.5140   -1.1250 H   0  0  0  0  0  0  0  0  0  0  0  0
   -4.2270   -5.6550    1.1280 C   0  0  0  0  0  0  0  0  0  0  0  0
   -5.0470   -5.6400    1.8470 H   0  0  0  0  0  0  0  0  0  0  0  0
   -4.4160   -6.4400    0.3960 H   0  0  0  0  0  0  0  0  0  0  0  0
   -3.2920   -5.8730    1.6460 H   0  0  0  0  0  0  0  0  0  0  0  0
   -7.7390    3.2030    1.4710 F   0  0  0  0  0  0  0  0  0  0  0  0
    4.3450    0.4090    0.7250 C   0  0  0  0  0  0  0  0  0  0  0  0
    4.0260    0.5210    1.7610 H   0  0  0  0  0  0  0  0  0  0  0  0
    3.9100   -0.5070    0.3260 H   0  0  0  0  0  0  0  0  0  0  0  0
    5.8440    0.2610    0.6980 C   0  0  0  0  0  0  0  0  0  0  0  0
    6.5550   -0.4820   -0.2180 N   0  0  0  0  0  0  0  0  0  0  0  0
    6.1080   -1.0670   -0.9090 H   0  0  0  0  0  0  0  0  0  0  0  0
    6.7220    0.9760    1.4770 N   0  0  0  0  0  0  0  0  0  0  0  0
    7.9270   -0.3030   -0.0640 C   0  0  0  0  0  0  0  0  0  0  0  0
    7.9880    0.6330    1.0260 C   0  0  0  0  0  0  0  0  0  0  0  0
    9.0700   -0.8030   -0.7060 C   0  0  0  0  0  0  0  0  0  0  0  0
    8.9800   -1.5040   -1.5220 H   0  0  0  0  0  0  0  0  0  0  0  0
    9.2780    1.0390    1.4320 C   0  0  0  0  0  0  0  0  0  0  0  0
    9.3800    1.7430    2.2450 H   0  0  0  0  0  0  0  0  0  0  0  0
   10.3320   -0.3700   -0.2690 C   0  0  0  0  0  0  0  0  0  0  0  0
   11.2270   -0.7400   -0.7500 H   0  0  0  0  0  0  0  0  0  0  0  0
   10.4330    0.5480    0.7920 C   0  0  0  0  0  0  0  0  0  0  0  0
   11.4060    0.8820    1.1190 H   0  0  0  0  0  0  0  0  0  0  0  0
   -2.3460    1.6810   -0.7360 H   0  0  0  0  0  0  0  0  0  0  0  0
  1  3  1  0  0  0  0
  1  6  1  0  0  0  0
  1  2  1  0  0  0  0
  1  9  1  0  0  0  0
  2 74  1  0  0  0  0
  2 11  1  0  0  0  0
  2 10  1  0  0  0  0
  3  4  1  0  0  0  0
  3  5  1  0  0  0  0
  3 13  1  0  0  0  0
  6  7  1  0  0  0  0
  6  8  1  0  0  0  0
  6 16  1  0  0  0  0
  9 19  1  0  0  0  0
 10 21  1  0  0  0  0
 10 20  2  0  0  0  0
 11 12  1  0  0  0  0
 11 27  1  0  0  0  0
 11 23  1  0  0  0  0
 13 14  1  0  0  0  0
 13 15  1  0  0  0  0
 13 20  1  0  0  0  0
 16 17  1  0  0  0  0
 16 18  1  0  0  0  0
 16 31  1  0  0  0  0
 19 32  1  0  0  0  0
 19 35  2  0  0  0  0
 20 36  1  0  0  0  0
 21 22  1  0  0  0  0
 21 38  2  0  0  0  0
 23 25  1  0  0  0  0
 23 26  1  0  0  0  0
 23 24  1  0  0  0  0
 27 29  1  0  0  0  0
 27 30  1  0  0  0  0
 27 28  1  0  0  0  0
 31 43  1  0  0  0  0
 31 40  1  0  0  0  0
 32 33  1  0  0  0  0
 32 34  1  0  0  0  0
 32 47  1  0  0  0  0
 36 37  1  0  0  0  0
 36 48  2  0  0  0  0
 38 39  1  0  0  0  0
 38 48  1  0  0  0  0
 40 41  1  0  0  0  0
 40 42  1  0  0  0  0
 40 49  1  0  0  0  0
 43 45  1  0  0  0  0
 43 46  1  0  0  0  0
 43 44  1  0  0  0  0
 47 52  1  0  0  0  0
 48 56  1  0  0  0  0
 49 50  1  0  0  0  0
 49 51  1  0  0  0  0
 49 57  1  0  0  0  0
 52 54  1  0  0  0  0
 52 55  1  0  0  0  0
 52 53  1  0  0  0  0
 57 58  1  0  0  0  0
 57 59  1  0  0  0  0
 57 60  1  0  0  0  0
 60 61  1  0  0  0  0
 60 63  2  0  0  0  0
 61 62  1  0  0  0  0
 61 64  1  0  0  0  0
 63 65  1  0  0  0  0
 64 66  2  0  0  0  0
 64 65  1  0  0  0  0
 65 68  2  0  0  0  0
 66 67  1  0  0  0  0
 66 70  1  0  0  0  0
 68 69  1  0  0  0  0
 68 72  1  0  0  0  0
 70 71  1  0  0  0  0
 70 72  2  0  0  0  0
 72 73  1  0  0  0  0
M  END
>  <name>
mibefradil

>  <activity>
-4.87

>  <logD>
3.66

>  <rgyr>
5.90811

>  <HCPSA>
51.9

>  <fROTB>
0.207792

$$$$
verapamil
  MOE2002           3D

 71 72  0  0  1  0  0  0  0  0  1 V2000
   -2.4890   -0.9710   -1.0400 C   0  0  2  0  0  0  0  0  0  0  0  0
   -3.6990   -0.1150   -0.6040 C   0  0  0  0  0  0  0  0  0  0  0  0
   -2.1370   -2.0480    0.0390 C   0  0  0  0  0  0  0  0  0  0  0  0
   -3.0890   -2.5040    0.3200 H   0  0  0  0  0  0  0  0  0  0  0  0
   -1.7550   -1.5860    0.9440 H   0  0  0  0  0  0  0  0  0  0  0  0
   -1.2720   -0.0620   -1.3930 C   0  0  0  0  0  0  0  0  0  0  0  0
   -0.4580   -0.6760   -1.7640 H   0  0  0  0  0  0  0  0  0  0  0  0
   -2.8590   -1.7160   -2.2220 C   0  0  0  0  0  0  0  0  0  0  0  0
   -3.8440    0.2620    0.7500 C   0  0  0  0  0  0  0  0  0  0  0  0
   -3.1240   -0.0400    1.4930 H   0  0  0  0  0  0  0  0  0  0  0  0
   -4.6230    0.4140   -1.5380 C   0  0  0  0  0  0  0  0  0  0  0  0
   -4.5420    0.2280   -2.5980 H   0  0  0  0  0  0  0  0  0  0  0  0
   -1.2190   -3.2590   -0.2840 C   0  0  0  0  0  0  0  0  0  0  0  0
   -1.3910   -4.0020    0.4940 H   0  0  0  0  0  0  0  0  0  0  0  0
   -1.5240   -3.7400   -1.2130 H   0  0  0  0  0  0  0  0  0  0  0  0
   -0.7350    0.7510   -0.2020 C   0  0  0  0  0  0  0  0  0  0  0  0
   -1.4770    1.4710    0.1390 H   0  0  0  0  0  0  0  0  0  0  0  0
   -0.4540    0.1150    0.6320 H   0  0  0  0  0  0  0  0  0  0  0  0
    0.1530    1.3010   -0.5140 H   0  0  0  0  0  0  0  0  0  0  0  0
   -1.5550    0.9680   -2.5050 C   0  0  0  0  0  0  0  0  0  0  0  0
   -2.2940    1.7000   -2.1770 H   0  0  0  0  0  0  0  0  0  0  0  0
   -0.6340    1.5010   -2.7450 H   0  0  0  0  0  0  0  0  0  0  0  0
   -1.9050    0.4880   -3.4190 H   0  0  0  0  0  0  0  0  0  0  0  0
   -3.1810   -2.3720   -3.2590 N   0  0  0  0  0  0  0  0  0  0  0  0
   -4.9100    1.0820    1.1670 C   0  0  0  0  0  0  0  0  0  0  0  0
   -5.6700    1.2450   -1.1070 C   0  0  0  0  0  0  0  0  0  0  0  0
   -6.3780    1.6280   -1.8290 H   0  0  0  0  0  0  0  0  0  0  0  0
    0.2970   -3.0030   -0.3570 C   0  0  0  0  0  0  0  0  0  0  0  0
    0.8280   -3.9550   -0.4130 H   0  0  0  0  0  0  0  0  0  0  0  0
    0.4940   -2.4760   -1.2870 H   0  0  0  0  0  0  0  0  0  0  0  0
   -5.7830    1.6010    0.2480 C   0  0  0  0  0  0  0  0  0  0  0  0
   -4.9960    1.4660    2.4790 O   0  0  0  0  0  0  0  0  0  0  0  0
    0.7950   -2.2030    0.7920 N   0  0  0  0  0  0  0  0  0  0  0  0
   -6.8030    2.4200    0.6600 O   0  0  0  0  0  0  0  0  0  0  0  0
   -5.5620    0.3800    3.1970 C   0  0  0  0  0  0  0  0  0  0  0  0
   -4.9320   -0.5100    3.1470 H   0  0  0  0  0  0  0  0  0  0  0  0
   -5.6510    0.6720    4.2430 H   0  0  0  0  0  0  0  0  0  0  0  0
   -6.5600    0.1440    2.8210 H   0  0  0  0  0  0  0  0  0  0  0  0
    2.1990   -1.8070    0.5080 C   0  0  0  0  0  0  0  0  0  0  0  0
    2.2250   -1.2960   -0.4580 H   0  0  0  0  0  0  0  0  0  0  0  0
    2.8430   -2.6890    0.4520 H   0  0  0  0  0  0  0  0  0  0  0  0
    0.7390   -3.0130    2.0380 C   0  0  0  0  0  0  0  0  0  0  0  0
    1.3680   -3.9030    1.9440 H   0  0  0  0  0  0  0  0  0  0  0  0
    1.0800   -2.4260    2.8880 H   0  0  0  0  0  0  0  0  0  0  0  0
   -0.2890   -3.3100    2.2570 H   0  0  0  0  0  0  0  0  0  0  0  0
   -6.4320    3.7500    0.3280 C   0  0  0  0  0  0  0  0  0  0  0  0
   -7.2100    4.4220    0.6910 H   0  0  0  0  0  0  0  0  0  0  0  0
   -5.4900    4.0260    0.8070 H   0  0  0  0  0  0  0  0  0  0  0  0
   -6.3450    3.8850   -0.7520 H   0  0  0  0  0  0  0  0  0  0  0  0
    2.7410   -0.8070    1.5410 C   0  0  0  0  0  0  0  0  0  0  0  0
    2.9290   -1.3120    2.4890 H   0  0  0  0  0  0  0  0  0  0  0  0
    1.9910   -0.0320    1.7110 H   0  0  0  0  0  0  0  0  0  0  0  0
    4.0290   -0.1300    1.1070 C   0  0  0  0  0  0  0  0  0  0  0  0
    3.9940    1.0000    0.2670 C   0  0  0  0  0  0  0  0  0  0  0  0
    3.0430    1.4030   -0.0480 H   0  0  0  0  0  0  0  0  0  0  0  0
    5.2700   -0.6130    1.5540 C   0  0  0  0  0  0  0  0  0  0  0  0
    5.3210   -1.4680    2.2130 H   0  0  0  0  0  0  0  0  0  0  0  0
    5.1930    1.6140   -0.1530 C   0  0  0  0  0  0  0  0  0  0  0  0
    6.4540    0.0320    1.1570 C   0  0  0  0  0  0  0  0  0  0  0  0
    7.4000   -0.3160    1.5440 H   0  0  0  0  0  0  0  0  0  0  0  0
    6.4040    1.1310    0.2760 C   0  0  0  0  0  0  0  0  0  0  0  0
    5.1490    2.7760   -0.8820 O   0  0  0  0  0  0  0  0  0  0  0  0
    7.5570    1.7910   -0.0670 O   0  0  0  0  0  0  0  0  0  0  0  0
    4.8190    2.4300   -2.2190 C   0  0  0  0  0  0  0  0  0  0  0  0
    3.8220    1.9950   -2.2870 H   0  0  0  0  0  0  0  0  0  0  0  0
    4.8320    3.3420   -2.8180 H   0  0  0  0  0  0  0  0  0  0  0  0
    5.5500    1.7360   -2.6380 H   0  0  0  0  0  0  0  0  0  0  0  0
    8.2840    0.9530   -0.9560 C   0  0  0  0  0  0  0  0  0  0  0  0
    9.1650    1.4990   -1.2920 H   0  0  0  0  0  0  0  0  0  0  0  0
    8.6220    0.0390   -0.4650 H   0  0  0  0  0  0  0  0  0  0  0  0
    7.6850    0.6980   -1.8320 H   0  0  0  0  0  0  0  0  0  0  0  0
  1  3  1  0  0  0  0
  1  6  1  0  0  0  0
  1  2  1  0  0  0  0
  1  8  1  0  0  0  0
  2 11  2  0  0  0  0
  2  9  1  0  0  0  0
  3  4  1  0  0  0  0
  3  5  1  0  0  0  0
  3 13  1  0  0  0  0
  6  7  1  0  0  0  0
  6 20  1  0  0  0  0
  6 16  1  0  0  0  0
  8 24  3  0  0  0  0
  9 10  1  0  0  0  0
  9 25  2  0  0  0  0
 11 12  1  0  0  0  0
 11 26  1  0  0  0  0
 13 14  1  0  0  0  0
 13 15  1  0  0  0  0
 13 28  1  0  0  0  0
 16 18  1  0  0  0  0
 16 19  1  0  0  0  0
 16 17  1  0  0  0  0
 20 22  1  0  0  0  0
 20 23  1  0  0  0  0
 20 21  1  0  0  0  0
 25 31  1  0  0  0  0
 25 32  1  0  0  0  0
 26 27  1  0  0  0  0
 26 31  2  0  0  0  0
 28 29  1  0  0  0  0
 28 30  1  0  0  0  0
 28 33  1  0  0  0  0
 31 34  1  0  0  0  0
 32 35  1  0  0  0  0
 33 42  1  0  0  0  0
 33 39  1  0  0  0  0
 34 46  1  0  0  0  0
 35 37  1  0  0  0  0
 35 38  1  0  0  0  0
 35 36  1  0  0  0  0
 39 40  1  0  0  0  0
 39 41  1  0  0  0  0
 39 50  1  0  0  0  0
 42 44  1  0  0  0  0
 42 45  1  0  0  0  0
 42 43  1  0  0  0  0
 46 48  1  0  0  0  0
 46 49  1  0  0  0  0
 46 47  1  0  0  0  0
 50 51  1  0  0  0  0
 50 52  1  0  0  0  0
 50 53  1  0  0  0  0
 53 56  2  0  0  0  0
 53 54  1  0  0  0  0
 54 55  1  0  0  0  0
 54 58  2  0  0  0  0
 56 57  1  0  0  0  0
 56 59  1  0  0  0  0
 58 61  1  0  0  0  0
 58 62  1  0  0  0  0
 59 60  1  0  0  0  0
 59 61  2  0  0  0  0
 61 63  1  0  0  0  0
 62 64  1  0  0  0  0
 63 68  1  0  0  0  0
 64 66  1  0  0  0  0
 64 67  1  0  0  0  0
 64 65  1  0  0  0  0
 68 70  1  0  0  0  0
 68 71  1  0  0  0  0
 68 69  1  0  0  0  0
M  END
>  <name>
verapamil

>  <activity>
-4.58

>  <logD>
2.07

>  <rgyr>
5.14284

>  <HCPSA>
61.58

>  <fROTB>
0.291667

$$$$
guanoxan
  MOE2002           3D

 28 29  0  0  1  0  0  0  0  0  1 V2000
    3.1880    1.8460   -0.0050 C   0  0  0  0  0  0  0  0  0  0  0  0
    3.6150    2.8380    0.0340 H   0  0  0  0  0  0  0  0  0  0  0  0
    3.8570    0.8160   -0.6820 C   0  0  0  0  0  0  0  0  0  0  0  0
    4.8030    1.0080   -1.1670 H   0  0  0  0  0  0  0  0  0  0  0  0
    3.2800   -0.4630   -0.7400 C   0  0  0  0  0  0  0  0  0  0  0  0
    3.7850   -1.2480   -1.2860 H   0  0  0  0  0  0  0  0  0  0  0  0
    2.0440   -0.7250   -0.1150 C   0  0  0  0  0  0  0  0  0  0  0  0
    1.3950    0.2890    0.5710 C   0  0  0  0  0  0  0  0  0  0  0  0
    1.9660    1.5750    0.6300 C   0  0  0  0  0  0  0  0  0  0  0  0
    1.4600    2.3640    1.1690 H   0  0  0  0  0  0  0  0  0  0  0  0
    1.4710   -1.9530   -0.3540 O   0  0  0  0  0  0  0  0  0  0  0  0
    0.4850   -2.2100    0.6280 C   0  0  0  0  0  0  0  0  0  0  0  0
    0.9570   -2.4140    1.5910 H   0  0  0  0  0  0  0  0  0  0  0  0
   -0.0800   -3.0920    0.3270 H   0  0  0  0  0  0  0  0  0  0  0  0
   -0.4630   -1.0200    0.7600 C   0  0  1  0  0  0  0  0  0  0  0  0
    0.2460    0.0840    1.2960 O   0  0  0  0  0  0  0  0  0  0  0  0
   -1.1770   -0.6730   -0.5570 C   0  0  0  0  0  0  0  0  0  0  0  0
   -0.4550   -0.4540   -1.3450 H   0  0  0  0  0  0  0  0  0  0  0  0
   -1.7630   -1.5320   -0.8790 H   0  0  0  0  0  0  0  0  0  0  0  0
   -2.0150    0.5320   -0.3560 N   0  0  0  0  0  0  0  0  0  0  0  0
   -1.5970    1.3010   -0.1900 H   0  0  0  0  0  0  0  0  0  0  0  0
   -3.3760    0.5120   -0.2450 C   0  0  0  0  0  0  0  0  0  0  0  0
   -4.0280    1.6730    0.0240 N   0  0  0  0  0  0  0  0  0  0  0  0
   -5.0280    1.7260    0.1410 H   0  0  0  0  0  0  0  0  0  0  0  0
   -3.5570    2.5580    0.1580 H   0  0  0  0  0  0  0  0  0  0  0  0
   -4.0940   -0.6380   -0.3680 N   0  0  0  0  0  0  0  0  0  0  0  0
   -3.6840   -1.4120   -0.5260 H   0  0  0  0  0  0  0  0  0  0  0  0
   -1.2330   -1.2880    1.4860 H   0  0  0  0  0  0  0  0  0  0  0  0
  1  2  1  0  0  0  0
  1  3  2  0  0  0  0
  1  9  1  0  0  0  0
  3  4  1  0  0  0  0
  3  5  1  0  0  0  0
  5  6  1  0  0  0  0
  5  7  2  0  0  0  0
  7  8  1  0  0  0  0
  7 11  1  0  0  0  0
  8  9  2  0  0  0  0
  8 16  1  0  0  0  0
  9 10  1  0  0  0  0
 11 12  1  0  0  0  0
 12 13  1  0  0  0  0
 12 14  1  0  0  0  0
 12 15  1  0  0  0  0
 15 28  1  0  0  0  0
 15 17  1  0  0  0  0
 15 16  1  0  0  0  0
 17 18  1  0  0  0  0
 17 19  1  0  0  0  0
 17 20  1  0  0  0  0
 20 21  1  0  0  0  0
 20 22  1  0  0  0  0
 22 23  1  0  0  0  0
 22 26  2  0  0  0  0
 23 25  1  0  0  0  0
 23 24  1  0  0  0  0
 26 27  1  0  0  0  0
M  END
>  <name>
guanoxan

>  <activity>
-4.71

>  <logD>
-0.83

>  <rgyr>
2.93436

>  <HCPSA>
84.07

>  <fROTB>
0.137931

$$$$
saquinavir
  MOE2002           3D

 99103  0  0  1  0  0  0  0  0  1 V2000
   -3.0830    0.9320   -0.8100 N   0  0  0  0  0  0  0  0  0  0  0  0
   -2.9960    2.1380    0.0640 C   0  0  1  0  0  0  0  0  0  0  0  0
   -3.1710    1.4130   -2.2180 C   0  0  0  0  0  0  0  0  0  0  0  0
   -3.4320    0.5710   -2.8590 H   0  0  0  0  0  0  0  0  0  0  0  0
   -2.1930    1.7800   -2.5370 H   0  0  0  0  0  0  0  0  0  0  0  0
   -1.8570    0.0830   -0.7160 C   0  0  0  0  0  0  0  0  0  0  0  0
   -0.9790    0.7010   -0.5240 H   0  0  0  0  0  0  0  0  0  0  0  0
   -1.6960   -0.4220   -1.6710 H   0  0  0  0  0  0  0  0  0  0  0  0
   -4.3430    2.8970    0.0550 C   0  0  0  0  0  0  0  0  0  0  0  0
   -4.1270    3.9520    0.2330 H   0  0  0  0  0  0  0  0  0  0  0  0
   -4.9910    2.5540    0.8650 H   0  0  0  0  0  0  0  0  0  0  0  0
   -2.6020    1.8580    1.5220 C   0  0  0  0  0  0  0  0  0  0  0  0
   -4.1580    2.5850   -2.4130 C   0  0  2  0  0  0  0  0  0  0  0  0
   -2.0150   -1.0750    0.2910 C   0  0  2  0  0  0  0  0  0  0  0  0
   -5.1360    2.7660   -1.2510 C   0  0  1  0  0  0  0  0  0  0  0  0
   -1.4380    2.3860    1.9350 N   0  0  0  0  0  0  0  0  0  0  0  0
   -0.8670    2.8440    1.2380 H   0  0  0  0  0  0  0  0  0  0  0  0
   -3.3740    1.2550    2.2660 O   0  0  0  0  0  0  0  0  0  0  0  0
   -4.9280    2.4960   -3.7400 C   0  0  0  0  0  0  0  0  0  0  0  0
   -4.2300    2.2980   -4.5560 H   0  0  0  0  0  0  0  0  0  0  0  0
   -5.4080    3.4580   -3.9280 H   0  0  0  0  0  0  0  0  0  0  0  0
   -0.6720   -1.7990    0.5310 C   0  0  2  0  0  0  0  0  0  0  0  0
   -2.9910   -1.9610   -0.2180 O   0  0  0  0  0  0  0  0  0  0  0  0
   -2.6800   -2.3130   -1.0550 H   0  0  0  0  0  0  0  0  0  0  0  0
   -6.1770    1.6330   -1.2200 C   0  0  0  0  0  0  0  0  0  0  0  0
   -6.8720    1.7980   -0.3960 H   0  0  0  0  0  0  0  0  0  0  0  0
   -5.6970    0.6630   -1.0780 H   0  0  0  0  0  0  0  0  0  0  0  0
   -1.0100    2.5690    3.3230 C   0  0  0  0  0  0  0  0  0  0  0  0
   -6.0110    1.4050   -3.7050 C   0  0  0  0  0  0  0  0  0  0  0  0
   -5.5530    0.4180   -3.6150 H   0  0  0  0  0  0  0  0  0  0  0  0
   -6.5740    1.4380   -4.6400 H   0  0  0  0  0  0  0  0  0  0  0  0
   -0.8900   -3.0890    1.3500 C   0  0  0  0  0  0  0  0  0  0  0  0
   -1.5600   -2.8450    2.1770 H   0  0  0  0  0  0  0  0  0  0  0  0
    0.0470   -3.4020    1.8070 H   0  0  0  0  0  0  0  0  0  0  0  0
    0.1830   -0.8990    1.2970 N   0  0  0  0  0  0  0  0  0  0  0  0
   -0.3070   -0.3720    2.0030 H   0  0  0  0  0  0  0  0  0  0  0  0
   -6.9730    1.6200   -2.5290 C   0  0  0  0  0  0  0  0  0  0  0  0
   -7.4930    2.5730   -2.6480 H   0  0  0  0  0  0  0  0  0  0  0  0
   -7.7070    0.8120   -2.5060 H   0  0  0  0  0  0  0  0  0  0  0  0
    0.3400    3.3020    3.3170 C   0  0  0  0  0  0  0  0  0  0  0  0
    1.0800    2.7180    2.7690 H   0  0  0  0  0  0  0  0  0  0  0  0
    0.2330    4.2750    2.8340 H   0  0  0  0  0  0  0  0  0  0  0  0
    0.6920    3.4490    4.3380 H   0  0  0  0  0  0  0  0  0  0  0  0
   -0.8230    1.2310    4.0550 C   0  0  0  0  0  0  0  0  0  0  0  0
   -0.5600    1.4210    5.0960 H   0  0  0  0  0  0  0  0  0  0  0  0
   -1.7320    0.6310    4.0370 H   0  0  0  0  0  0  0  0  0  0  0  0
   -0.0120    0.6650    3.6040 H   0  0  0  0  0  0  0  0  0  0  0  0
   -2.0230    3.4440    4.0790 C   0  0  0  0  0  0  0  0  0  0  0  0
   -1.6550    3.6540    5.0840 H   0  0  0  0  0  0  0  0  0  0  0  0
   -2.1640    4.3900    3.5530 H   0  0  0  0  0  0  0  0  0  0  0  0
   -2.9860    2.9400    4.1660 H   0  0  0  0  0  0  0  0  0  0  0  0
   -1.4450   -4.2870    0.5900 C   0  0  0  0  0  0  0  0  0  0  0  0
    1.5020   -0.6560    1.1900 C   0  0  0  0  0  0  0  0  0  0  0  0
   -2.5920   -4.9500    1.0700 C   0  0  0  0  0  0  0  0  0  0  0  0
   -3.0860   -4.6050    1.9670 H   0  0  0  0  0  0  0  0  0  0  0  0
   -0.8050   -4.7680   -0.5720 C   0  0  0  0  0  0  0  0  0  0  0  0
    0.0820   -4.2900   -0.9560 H   0  0  0  0  0  0  0  0  0  0  0  0
    2.3570   -1.3730    0.1230 C   0  0  1  0  0  0  0  0  0  0  0  0
    2.0300    0.1630    1.9400 O   0  0  0  0  0  0  0  0  0  0  0  0
   -3.1060   -6.0660    0.3870 C   0  0  0  0  0  0  0  0  0  0  0  0
   -3.9890   -6.5650    0.7580 H   0  0  0  0  0  0  0  0  0  0  0  0
   -1.3180   -5.8870   -1.2510 C   0  0  0  0  0  0  0  0  0  0  0  0
   -0.8230   -6.2510   -2.1400 H   0  0  0  0  0  0  0  0  0  0  0  0
    3.6310   -0.6860   -0.1010 N   0  0  0  0  0  0  0  0  0  0  0  0
    3.7530   -0.2670   -1.0120 H   0  0  0  0  0  0  0  0  0  0  0  0
    2.6000   -2.8620    0.4330 C   0  0  0  0  0  0  0  0  0  0  0  0
    2.9980   -2.9900    1.4400 H   0  0  0  0  0  0  0  0  0  0  0  0
    1.6570   -3.3930    0.3870 H   0  0  0  0  0  0  0  0  0  0  0  0
   -2.4690   -6.5350   -0.7740 C   0  0  0  0  0  0  0  0  0  0  0  0
   -2.8610   -7.3970   -1.2960 H   0  0  0  0  0  0  0  0  0  0  0  0
    4.6560   -0.6250    0.7690 C   0  0  0  0  0  0  0  0  0  0  0  0
    3.5220   -3.5330   -0.5870 C   0  0  0  0  0  0  0  0  0  0  0  0
    5.8670   -0.0070    0.3850 C   0  0  0  0  0  0  0  0  0  0  0  0
    4.5670   -1.1060    1.8990 O   0  0  0  0  0  0  0  0  0  0  0  0
    4.8010   -3.6960   -0.2370 N   0  0  0  0  0  0  0  0  0  0  0  0
    5.1230   -3.3700    0.6630 H   0  0  0  0  0  0  0  0  0  0  0  0
    5.4470   -4.1390   -0.8740 H   0  0  0  0  0  0  0  0  0  0  0  0
    3.0800   -3.9080   -1.6720 O   0  0  0  0  0  0  0  0  0  0  0  0
    6.0090    0.4780   -0.8690 N   0  0  0  0  0  0  0  0  0  0  0  0
    6.9460    0.0910    1.2940 C   0  0  0  0  0  0  0  0  0  0  0  0
    6.8710   -0.2850    2.3030 H   0  0  0  0  0  0  0  0  0  0  0  0
    7.1490    1.0590   -1.2940 C   0  0  0  0  0  0  0  0  0  0  0  0
    8.1480    0.6900    0.8860 C   0  0  0  0  0  0  0  0  0  0  0  0
    8.9750    0.7680    1.5780 H   0  0  0  0  0  0  0  0  0  0  0  0
    8.2540    1.1810   -0.4250 C   0  0  0  0  0  0  0  0  0  0  0  0
    7.2410    1.5410   -2.6120 C   0  0  0  0  0  0  0  0  0  0  0  0
    6.4020    1.4480   -3.2860 H   0  0  0  0  0  0  0  0  0  0  0  0
    9.4440    1.7820   -0.8740 C   0  0  0  0  0  0  0  0  0  0  0  0
   10.2960    1.8760   -0.2150 H   0  0  0  0  0  0  0  0  0  0  0  0
    8.4300    2.1460   -3.0590 C   0  0  0  0  0  0  0  0  0  0  0  0
    8.4990    2.5160   -4.0710 H   0  0  0  0  0  0  0  0  0  0  0  0
    9.5300    2.2660   -2.1910 C   0  0  0  0  0  0  0  0  0  0  0  0
   10.4420    2.7290   -2.5380 H   0  0  0  0  0  0  0  0  0  0  0  0
   -2.2390    2.7990   -0.3540 H   0  0  0  0  0  0  0  0  0  0  0  0
   -3.5560    3.4950   -2.4570 H   0  0  0  0  0  0  0  0  0  0  0  0
   -5.6810    3.7010   -1.3980 H   0  0  0  0  0  0  0  0  0  0  0  0
    1.8310   -1.3100   -0.8300 H   0  0  0  0  0  0  0  0  0  0  0  0
   -2.3760   -0.7260    1.2540 H   0  0  0  0  0  0  0  0  0  0  0  0
   -0.2240   -2.0370   -0.4320 H   0  0  0  0  0  0  0  0  0  0  0  0
  1  3  1  0  0  0  0
  1  6  1  0  0  0  0
  1  2  1  0  0  0  0
  2 94  1  0  0  0  0
  2  9  1  0  0  0  0
  2 12  1  0  0  0  0
  3  4  1  0  0  0  0
  3  5  1  0  0  0  0
  3 13  1  0  0  0  0
  6  7  1  0  0  0  0
  6  8  1  0  0  0  0
  6 14  1  0  0  0  0
  9 10  1  0  0  0  0
  9 11  1  0  0  0  0
  9 15  1  0  0  0  0
 12 16  1  0  0  0  0
 12 18  2  0  0  0  0
 13 95  1  0  0  0  0
 13 19  1  0  0  0  0
 13 15  1  0  0  0  0
 14 98  1  0  0  0  0
 14 22  1  0  0  0  0
 14 23  1  0  0  0  0
 15 96  1  0  0  0  0
 15 25  1  0  0  0  0
 16 17  1  0  0  0  0
 16 28  1  0  0  0  0
 19 20  1  0  0  0  0
 19 21  1  0  0  0  0
 19 29  1  0  0  0  0
 22 99  1  0  0  0  0
 22 32  1  0  0  0  0
 22 35  1  0  0  0  0
 23 24  1  0  0  0  0
 25 27  1  0  0  0  0
 25 26  1  0  0  0  0
 25 37  1  0  0  0  0
 28 40  1  0  0  0  0
 28 44  1  0  0  0  0
 28 48  1  0  0  0  0
 29 31  1  0  0  0  0
 29 30  1  0  0  0  0
 29 37  1  0  0  0  0
 32 33  1  0  0  0  0
 32 34  1  0  0  0  0
 32 52  1  0  0  0  0
 35 36  1  0  0  0  0
 35 53  1  0  0  0  0
 37 39  1  0  0  0  0
 37 38  1  0  0  0  0
 40 42  1  0  0  0  0
 40 43  1  0  0  0  0
 40 41  1  0  0  0  0
 44 46  1  0  0  0  0
 44 47  1  0  0  0  0
 44 45  1  0  0  0  0
 48 50  1  0  0  0  0
 48 51  1  0  0  0  0
 48 49  1  0  0  0  0
 52 54  2  0  0  0  0
 52 56  1  0  0  0  0
 53 58  1  0  0  0  0
 53 59  2  0  0  0  0
 54 55  1  0  0  0  0
 54 60  1  0  0  0  0
 56 57  1  0  0  0  0
 56 62  2  0  0  0  0
 58 97  1  0  0  0  0
 58 66  1  0  0  0  0
 58 64  1  0  0  0  0
 60 61  1  0  0  0  0
 60 69  2  0  0  0  0
 62 63  1  0  0  0  0
 62 69  1  0  0  0  0
 64 65  1  0  0  0  0
 64 71  1  0  0  0  0
 66 67  1  0  0  0  0
 66 68  1  0  0  0  0
 66 72  1  0  0  0  0
 69 70  1  0  0  0  0
 71 73  1  0  0  0  0
 71 74  2  0  0  0  0
 72 75  1  0  0  0  0
 72 78  2  0  0  0  0
 73 80  1  0  0  0  0
 73 79  2  0  0  0  0
 75 77  1  0  0  0  0
 75 76  1  0  0  0  0
 79 82  1  0  0  0  0
 80 81  1  0  0  0  0
 80 83  2  0  0  0  0
 82 86  2  0  0  0  0
 82 85  1  0  0  0  0
 83 84  1  0  0  0  0
 83 85  1  0  0  0  0
 85 88  2  0  0  0  0
 86 87  1  0  0  0  0
 86 90  1  0  0  0  0
 88 89  1  0  0  0  0
 88 92  1  0  0  0  0
 90 91  1  0  0  0  0
 90 92  2  0  0  0  0
 92 93  1  0  0  0  0
M  END
>  <name>
saquinavir

>  <activity>
-6.26

>  <logD>
3

>  <rgyr>
5.57686

>  <HCPSA>
130.93

>  <fROTB>
0.203883

$$$$
lidocaine
  MOE2002           3D

 39 39  0  0  0  0  0  0  0  0  1 V2000
   -2.0390   -0.0490    0.2180 C   0  0  0  0  0  0  0  0  0  0  0  0
   -0.6590   -0.2110    0.3200 N   0  0  0  0  0  0  0  0  0  0  0  0
   -0.1480    0.5430    0.7560 H   0  0  0  0  0  0  0  0  0  0  0  0
   -2.5580    1.2670    0.2140 C   0  0  0  0  0  0  0  0  0  0  0  0
   -2.9360   -1.1500    0.1710 C   0  0  0  0  0  0  0  0  0  0  0  0
    0.1550   -1.1990   -0.2360 C   0  0  0  0  0  0  0  0  0  0  0  0
   -3.9380    1.4800    0.0320 C   0  0  0  0  0  0  0  0  0  0  0  0
   -4.3370    2.4830   -0.0060 H   0  0  0  0  0  0  0  0  0  0  0  0
   -1.6350    2.4700    0.2840 C   0  0  0  0  0  0  0  0  0  0  0  0
   -1.0270    2.5150   -0.6200 H   0  0  0  0  0  0  0  0  0  0  0  0
   -2.2110    3.3920    0.3600 H   0  0  0  0  0  0  0  0  0  0  0  0
   -0.9870    2.3970    1.1590 H   0  0  0  0  0  0  0  0  0  0  0  0
   -4.3080   -0.9180   -0.0390 C   0  0  0  0  0  0  0  0  0  0  0  0
   -4.9930   -1.7510   -0.1030 H   0  0  0  0  0  0  0  0  0  0  0  0
   -2.5230   -2.5650    0.5490 C   0  0  0  0  0  0  0  0  0  0  0  0
   -2.3500   -3.1520   -0.3530 H   0  0  0  0  0  0  0  0  0  0  0  0
   -1.6340   -2.5720    1.1790 H   0  0  0  0  0  0  0  0  0  0  0  0
   -3.3270   -3.0380    1.1140 H   0  0  0  0  0  0  0  0  0  0  0  0
    1.5910   -1.3680    0.2550 C   0  0  0  0  0  0  0  0  0  0  0  0
    1.5020   -1.6890    1.2940 H   0  0  0  0  0  0  0  0  0  0  0  0
    2.0900   -2.1640   -0.3020 H   0  0  0  0  0  0  0  0  0  0  0  0
   -0.2700   -1.9430   -1.1200 O   0  0  0  0  0  0  0  0  0  0  0  0
   -4.8070    0.3900   -0.1170 C   0  0  0  0  0  0  0  0  0  0  0  0
   -5.8630    0.5580   -0.2680 H   0  0  0  0  0  0  0  0  0  0  0  0
    2.4010   -0.1170    0.2030 N   0  0  0  0  0  0  0  0  0  0  0  0
    3.6700   -0.3980    0.9290 C   0  0  0  0  0  0  0  0  0  0  0  0
    4.2360   -1.1840    0.4280 H   0  0  0  0  0  0  0  0  0  0  0  0
    3.4310   -0.7320    1.9400 H   0  0  0  0  0  0  0  0  0  0  0  0
    2.7250    0.2600   -1.2050 C   0  0  0  0  0  0  0  0  0  0  0  0
    3.1860   -0.5750   -1.7350 H   0  0  0  0  0  0  0  0  0  0  0  0
    3.4260    1.0930   -1.2030 H   0  0  0  0  0  0  0  0  0  0  0  0
    4.5490    0.8520    1.0880 C   0  0  0  0  0  0  0  0  0  0  0  0
    5.0600    1.1060    0.1600 H   0  0  0  0  0  0  0  0  0  0  0  0
    3.9430    1.6950    1.4220 H   0  0  0  0  0  0  0  0  0  0  0  0
    5.3130    0.6500    1.8390 H   0  0  0  0  0  0  0  0  0  0  0  0
    1.5260    0.7980   -1.9960 C   0  0  0  0  0  0  0  0  0  0  0  0
    0.9500    1.4900   -1.3820 H   0  0  0  0  0  0  0  0  0  0  0  0
    1.9020    1.3420   -2.8620 H   0  0  0  0  0  0  0  0  0  0  0  0
    0.8950   -0.0060   -2.3680 H   0  0  0  0  0  0  0  0  0  0  0  0
  1  4  2  0  0  0  0
  1  5  1  0  0  0  0
  1  2  1  0  0  0  0
  2  3  1  0  0  0  0
  2  6  1  0  0  0  0
  4  9  1  0  0  0  0
  4  7  1  0  0  0  0
  5 15  1  0  0  0  0
  5 13  2  0  0  0  0
  6 19  1  0  0  0  0
  6 22  2  0  0  0  0
  7  8  1  0  0  0  0
  7 23  2  0  0  0  0
  9 11  1  0  0  0  0
  9 12  1  0  0  0  0
  9 10  1  0  0  0  0
 13 14  1  0  0  0  0
 13 23  1  0  0  0  0
 15 17  1  0  0  0  0
 15 18  1  0  0  0  0
 15 16  1  0  0  0  0
 19 20  1  0  0  0  0
 19 21  1  0  0  0  0
 19 25  1  0  0  0  0
 23 24  1  0  0  0  0
 25 26  1  0  0  0  0
 25 29  1  0  0  0  0
 26 27  1  0  0  0  0
 26 28  1  0  0  0  0
 26 32  1  0  0  0  0
 29 30  1  0  0  0  0
 29 31  1  0  0  0  0
 29 36  1  0  0  0  0
 32 34  1  0  0  0  0
 32 35  1  0  0  0  0
 32 33  1  0  0  0  0
 36 38  1  0  0  0  0
 36 39  1  0  0  0  0
 36 37  1  0  0  0  0
M  END
>  <name>
lidocaine

>  <activity>
-4.21

>  <logD>
1.63

>  <rgyr>
3.23241

>  <HCPSA>
24.46

>  <fROTB>
0.25641

$$$$
Enalapril
  MOE2002           3D

 55 56  0  0  1  0  0  0  0  0  1 V2000
   -3.3030    1.0290   -0.3930 N   0  0  0  0  0  0  0  0  0  0  0  0
   -4.3080    1.8490    0.2790 C   0  0  1  0  0  0  0  0  0  0  0  0
   -2.2750    0.4310    0.2450 C   0  0  0  0  0  0  0  0  0  0  0  0
   -3.5660    0.9990   -1.8260 C   0  0  0  0  0  0  0  0  0  0  0  0
   -3.9960    0.0310   -2.0940 H   0  0  0  0  0  0  0  0  0  0  0  0
   -2.6800    1.2000   -2.4290 H   0  0  0  0  0  0  0  0  0  0  0  0
   -5.3600    2.1870   -0.7810 C   0  0  0  0  0  0  0  0  0  0  0  0
   -5.8050    3.1700   -0.6210 H   0  0  0  0  0  0  0  0  0  0  0  0
   -6.1380    1.4220   -0.7960 H   0  0  0  0  0  0  0  0  0  0  0  0
   -4.9590    1.1460    1.4730 C   0  0  0  0  0  0  0  0  0  0  0  0
   -1.3150   -0.4710   -0.5500 C   0  0  1  0  0  0  0  0  0  0  0  0
   -2.0930    0.5740    1.4550 O   0  0  0  0  0  0  0  0  0  0  0  0
   -4.5790    2.1120   -2.0880 C   0  0  0  0  0  0  0  0  0  0  0  0
   -5.2200    1.8960   -2.9430 H   0  0  0  0  0  0  0  0  0  0  0  0
   -4.0490    3.0530   -2.2450 H   0  0  0  0  0  0  0  0  0  0  0  0
   -5.3310    1.8770    2.5630 O   0  0  0  0  0  0  0  0  0  0  0  0
   -5.7410    1.3480    3.2520 H   0  0  0  0  0  0  0  0  0  0  0  0
   -5.1540   -0.0680    1.4580 O   0  0  0  0  0  0  0  0  0  0  0  0
    0.0420   -0.3260    0.0370 N   0  0  0  0  0  0  0  0  0  0  0  0
    0.0630   -0.6880    0.8840 H   0  0  0  0  0  0  0  0  0  0  0  0
   -1.8280   -1.9180   -0.5150 C   0  0  0  0  0  0  0  0  0  0  0  0
   -1.3650   -2.5150   -1.2990 H   0  0  0  0  0  0  0  0  0  0  0  0
   -1.6370   -2.3660    0.4610 H   0  0  0  0  0  0  0  0  0  0  0  0
   -2.9030   -1.9250   -0.6970 H   0  0  0  0  0  0  0  0  0  0  0  0
    1.1300   -0.9050   -0.7880 C   0  0  1  0  0  0  0  0  0  0  0  0
    2.4760   -0.3670   -0.2820 C   0  0  0  0  0  0  0  0  0  0  0  0
    3.2780   -0.8380   -0.8530 H   0  0  0  0  0  0  0  0  0  0  0  0
    2.6050   -0.6210    0.7720 H   0  0  0  0  0  0  0  0  0  0  0  0
    1.1460   -2.4300   -0.7280 C   0  0  0  0  0  0  0  0  0  0  0  0
    2.5910    1.1520   -0.4550 C   0  0  0  0  0  0  0  0  0  0  0  0
    2.4260    1.4000   -1.5050 H   0  0  0  0  0  0  0  0  0  0  0  0
    1.8160    1.6470    0.1310 H   0  0  0  0  0  0  0  0  0  0  0  0
    1.1630   -3.0350    0.4430 O   0  0  0  0  0  0  0  0  0  0  0  0
    1.1620   -3.0840   -1.7710 O   0  0  0  0  0  0  0  0  0  0  0  0
    3.9340    1.7040   -0.0220 C   0  0  0  0  0  0  0  0  0  0  0  0
    1.1620   -4.4460    0.5590 C   0  0  0  0  0  0  0  0  0  0  0  0
    2.0330   -4.8640    0.0510 H   0  0  0  0  0  0  0  0  0  0  0  0
    0.2510   -4.8560    0.1210 H   0  0  0  0  0  0  0  0  0  0  0  0
    4.9590    1.9030   -0.9670 C   0  0  0  0  0  0  0  0  0  0  0  0
    4.7870    1.6880   -2.0110 H   0  0  0  0  0  0  0  0  0  0  0  0
    4.1750    1.9740    1.3380 C   0  0  0  0  0  0  0  0  0  0  0  0
    3.3940    1.8180    2.0680 H   0  0  0  0  0  0  0  0  0  0  0  0
    1.2220   -4.8260    2.0380 C   0  0  0  0  0  0  0  0  0  0  0  0
    1.2100   -5.9120    2.1380 H   0  0  0  0  0  0  0  0  0  0  0  0
    2.1390   -4.4350    2.4800 H   0  0  0  0  0  0  0  0  0  0  0  0
    0.3620   -4.4070    2.5600 H   0  0  0  0  0  0  0  0  0  0  0  0
    6.2160    2.3780   -0.5530 C   0  0  0  0  0  0  0  0  0  0  0  0
    7.0000    2.5330   -1.2810 H   0  0  0  0  0  0  0  0  0  0  0  0
    5.4350    2.4420    1.7510 C   0  0  0  0  0  0  0  0  0  0  0  0
    5.6190    2.6450    2.7970 H   0  0  0  0  0  0  0  0  0  0  0  0
    6.4550    2.6430    0.8060 C   0  0  0  0  0  0  0  0  0  0  0  0
    7.4240    2.9990    1.1260 H   0  0  0  0  0  0  0  0  0  0  0  0
    1.0170   -0.5770   -1.8220 H   0  0  0  0  0  0  0  0  0  0  0  0
   -3.8270    2.7700    0.6110 H   0  0  0  0  0  0  0  0  0  0  0  0
   -1.2660   -0.1400   -1.5840 H   0  0  0  0  0  0  0  0  0  0  0  0
  1  4  1  0  0  0  0
  1  2  1  0  0  0  0
  1  3  1  0  0  0  0
  2 54  1  0  0  0  0
  2  7  1  0  0  0  0
  2 10  1  0  0  0  0
  3 11  1  0  0  0  0
  3 12  2  0  0  0  0
  4  5  1  0  0  0  0
  4  6  1  0  0  0  0
  4 13  1  0  0  0  0
  7  8  1  0  0  0  0
  7  9  1  0  0  0  0
  7 13  1  0  0  0  0
 10 16  1  0  0  0  0
 10 18  2  0  0  0  0
 11 55  1  0  0  0  0
 11 21  1  0  0  0  0
 11 19  1  0  0  0  0
 13 15  1  0  0  0  0
 13 14  1  0  0  0  0
 16 17  1  0  0  0  0
 19 20  1  0  0  0  0
 19 25  1  0  0  0  0
 21 23  1  0  0  0  0
 21 24  1  0  0  0  0
 21 22  1  0  0  0  0
 25 53  1  0  0  0  0
 25 26  1  0  0  0  0
 25 29  1  0  0  0  0
 26 27  1  0  0  0  0
 26 28  1  0  0  0  0
 26 30  1  0  0  0  0
 29 34  2  0  0  0  0
 29 33  1  0  0  0  0
 30 31  1  0  0  0  0
 30 32  1  0  0  0  0
 30 35  1  0  0  0  0
 33 36  1  0  0  0  0
 35 39  2  0  0  0  0
 35 41  1  0  0  0  0
 36 37  1  0  0  0  0
 36 38  1  0  0  0  0
 36 43  1  0  0  0  0
 39 40  1  0  0  0  0
 39 47  1  0  0  0  0
 41 42  1  0  0  0  0
 41 49  2  0  0  0  0
 43 45  1  0  0  0  0
 43 46  1  0  0  0  0
 43 44  1  0  0  0  0
 47 48  1  0  0  0  0
 47 51  2  0  0  0  0
 49 50  1  0  0  0  0
 49 51  1  0  0  0  0
 51 52  1  0  0  0  0
M  END
>  <name>
enalapril

>  <activity>
-5.64

>  <logD>
-0.9

>  <rgyr>
4.47575

>  <HCPSA>
91.59

>  <fROTB>
0.25

$$$$
theophylline
  MOE2002           3D

 21 22  0  0  0  0  0  0  0  0  1 V2000
    1.0620    1.0990   -0.0020 C   0  0  0  0  0  0  0  0  0  0  0  0
    1.0540   -0.3130    0.0000 C   0  0  0  0  0  0  0  0  0  0  0  0
   -0.1940    1.7690   -0.0020 C   0  0  0  0  0  0  0  0  0  0  0  0
    2.3740    1.5490   -0.0040 N   0  0  0  0  0  0  0  0  0  0  0  0
   -0.0670   -1.0820    0.0040 N   0  0  0  0  0  0  0  0  0  0  0  0
    2.4010   -0.6330   -0.0020 N   0  0  0  0  0  0  0  0  0  0  0  0
    2.7910   -1.5650   -0.0010 H   0  0  0  0  0  0  0  0  0  0  0  0
   -1.3460    0.9660   -0.0030 N   0  0  0  0  0  0  0  0  0  0  0  0
   -0.3330    2.9920    0.0010 O   0  0  0  0  0  0  0  0  0  0  0  0
    3.1640    0.4750   -0.0030 C   0  0  0  0  0  0  0  0  0  0  0  0
    4.2440    0.4900   -0.0050 H   0  0  0  0  0  0  0  0  0  0  0  0
   -1.2810   -0.4410   -0.0030 C   0  0  0  0  0  0  0  0  0  0  0  0
    0.0190   -2.5530    0.0040 C   0  0  0  0  0  0  0  0  0  0  0  0
   -0.5950   -2.9600    0.8080 H   0  0  0  0  0  0  0  0  0  0  0  0
   -0.3430   -2.9370   -0.9500 H   0  0  0  0  0  0  0  0  0  0  0  0
    1.0440   -2.8920    0.1500 H   0  0  0  0  0  0  0  0  0  0  0  0
   -2.6700    1.6480    0.0040 C   0  0  0  0  0  0  0  0  0  0  0  0
   -3.5100    0.9550   -0.0100 H   0  0  0  0  0  0  0  0  0  0  0  0
   -2.7520    2.2640    0.9000 H   0  0  0  0  0  0  0  0  0  0  0  0
   -2.7520    2.2890   -0.8750 H   0  0  0  0  0  0  0  0  0  0  0  0
   -2.3090   -1.1180   -0.0120 O   0  0  0  0  0  0  0  0  0  0  0  0
  1  2  2  0  0  0  0
  1  3  1  0  0  0  0
  1  4  1  0  0  0  0
  2  6  1  0  0  0  0
  2  5  1  0  0  0  0
  3  8  1  0  0  0  0
  3  9  2  0  0  0  0
  4 10  2  0  0  0  0
  5 13  1  0  0  0  0
  5 12  1  0  0  0  0
  6  7  1  0  0  0  0
  6 10  1  0  0  0  0
  8 17  1  0  0  0  0
  8 12  1  0  0  0  0
 10 11  1  0  0  0  0
 12 21  2  0  0  0  0
 13 15  1  0  0  0  0
 13 16  1  0  0  0  0
 13 14  1  0  0  0  0
 17 19  1  0  0  0  0
 17 20  1  0  0  0  0
 17 18  1  0  0  0  0
M  END
>  <name>
theophylline

>  <activity>
-4.35

>  <logD>
-0.02

>  <rgyr>
2.36196

>  <HCPSA>
61.59

>  <fROTB>
0.0909091

$$$$
